@<TRIPOS>MOLECULE
Ethanol
9 8 0 0 0
SMALL
USER_CHARGES

@<TRIPOS>ATOM
      1 C1          0.0000    0.0000    0.0000 C.3     1  UNK1        0.0000
      2 C2          1.4289    0.0000    0.0000 C.3     1  UNK1        0.0000
      3 O1          2.1434    1.2375    0.0000 O.3     1  UNK1        0.0000
@<TRIPOS>BOND
     1    1    2 1
     2    2    3 1 